*DSSAT Cropping System Model Ver. 4.6.1.000 -release      NOV 13, 2020; 11:14:48

 Unit  Filename
  101  OPCLR
   21  FILEIO
